18

C        0.7727534249      2.2080695517      0.0000000000                 
C       -0.3461634213      1.4717879027      0.0000000000                 
C       -0.4870186873      0.0326595250      0.0000000000                 
C        0.4532176162     -0.9219276066      0.0000000000                 
C        1.8924469942     -0.7944811542      0.0000000000                 
C        2.6147587595      0.3327715944      0.0000000000                 
C        2.1198687552      1.7084361476      0.0000000000                 
C        3.2241721861      2.4902762577      0.0000000000                 
C        4.4208652173      1.6678886000      0.0000000000                 
C        4.0689298523      0.3717031955      0.0000000000                 
H        3.2473236653      3.5693166596      0.0000000000                 
H        4.7274325884     -0.4810161687      0.0000000000                 
H        5.4262249457      2.0588965655      0.0000000000                 
H       -1.2946279095      2.0084429830      0.0000000000                 
H        0.6666885067      3.2909730570      0.0000000000                 
H        0.1079425885     -1.9559182781      0.0000000000                 
H       -1.5253983001     -0.3002369322      0.0000000000                 
H        2.4211397932     -1.7463183874      0.0000000000                 
