8

C       -1.8882516887      1.0960121521     -0.0027515087                 
C       -1.8595481342     -0.2493621007      0.0001137412                 
C       -0.4307672639     -0.2190487560     -0.0028207638                 
C       -0.4594777968      1.1266522186     -0.0056904714                 
H       -2.6627214563      1.8551947762     -0.0028451330                 
H       -2.6009337367     -1.0408788567      0.0033230810                 
H        0.2818254910      1.9182357561     -0.0089014868                 
H        0.3436231214     -0.9783016086     -0.0027251314                 
