14

C       -2.0150884783     -0.6889015148      0.0000412260                 
C       -0.8983699210      0.0476221012      0.0004571036                 
C        0.4257315974     -0.5293575053     -0.0016398211                 
C        1.5414673458      0.2151524572     -0.0007194376                 
C        2.8672610047     -0.3575613015     -0.0028202104                 
C        3.9803479150      0.3850207999     -0.0013784701                 
H       -0.9811002481      1.1326017492      0.0024599260                 
H       -1.9935210427     -1.7739865491     -0.0018677018                 
H       -2.9894497660     -0.2101687114      0.0016812184                 
H        1.4712121149      1.3010404686      0.0017385318                 
H        0.4943529013     -1.6153421826     -0.0040182332                 
H        4.9577601374     -0.0872365159     -0.0030595167                 
H        3.9518783268      1.4700640798      0.0015284947                 
H        2.9549062196     -1.4421109267     -0.0057047470         
